examples/nordic-44/PF_snapshots/N44_PF2.raw
0,  1000.00, 33, 0, 1, 50.00     / PSS(R)E-33.5    TUE, DEC 08 2015  22:07
PSS/E VERSION 33 RAW DATA EXPORT FROM PSS/O
2015-08-12 NORDIC44_BZ (NORDIC44)
  3000,'FORSMARK    ', 420.0000,2,  23,   1,   1,1.00000,   0.1100,1.10000,0.90000,1.10000,0.90000
  3020,'DANNEBO_HVDC', 420.0000,1,  23,   1,   1,0.99590,  -0.5914,1.10000,0.90000,1.10000,0.90000
  3100,'HJALTA      ', 420.0000,1,  22,   1,   1,1.00148,   6.7022,1.10000,0.90000,1.10000,0.90000
  3115,'PORJUS      ', 420.0000,2,  21,   1,   1,1.00000,  24.5021,1.10000,0.90000,1.10000,0.90000
  3200,'TENHULT     ', 420.0000,1,  23,   1,   1,1.00357,  -0.9788,1.10000,0.90000,1.10000,0.90000
  3244,'HOGASEN     ', 300.0000,1,  22,   1,   1,1.00014,   3.6987,1.10000,0.90000,1.10000,0.90000
  3245,'JARPSTROMMEN', 420.0000,2,  22,   1,   1,1.00000,   3.8294,1.10000,0.90000,1.10000,0.90000
  3249,'GRUNDFORS   ', 420.0000,2,  22,   1,   1,1.00000,  30.3153,1.10000,0.90000,1.10000,0.90000
  3300,'OSKARSHAMN  ', 420.0000,3,  23,   1,   1,1.00000,   0.0000,1.10000,0.90000,1.10000,0.90000
  3359,'RINGHALS    ', 420.0000,2,  23,   1,   1,1.00000,  -7.8039,1.10000,0.90000,1.10000,0.90000
  3360,'STENKU_HVDC ', 135.0000,1,  23,   1,   1,1.00273,  -7.5732,1.10000,0.90000,1.10000,0.90000
  3701,'AJAURE      ', 300.0000,1,  22,   1,   1,1.00537,  29.4472,1.10000,0.90000,1.10000,0.90000
  5100,'TRETTEN     ', 300.0000,2,  11,   1,   1,1.00000,   3.8652,1.10000,0.90000,1.10000,0.90000
  5101,'HASLE       ', 420.0000,1,  11,   1,   1,0.99517,   4.3421,1.10000,0.90000,1.10000,0.90000
  5102,'DAGALI      ', 420.0000,1,  15,   1,   1,0.99609,  10.7463,1.10000,0.90000,1.10000,0.90000
  5103,'KONGSBERG   ', 420.0000,1,  11,   1,   1,0.99320,  11.9809,1.10000,0.90000,1.10000,0.90000
  5300,'SIMA        ', 300.0000,2,  15,   1,   1,1.00000,  40.0583,1.10000,0.90000,1.10000,0.90000
  5301,'AURLAND     ', 420.0000,1,  15,   1,   1,1.00318,  29.1342,1.10000,0.90000,1.10000,0.90000
  5304,'GEILO       ', 420.0000,1,  15,   1,   1,0.99381,  20.0760,1.10000,0.90000,1.10000,0.90000
  5305,'EIDFJORD    ', 420.0000,1,  15,   1,   1,1.00416,  21.1870,1.10000,0.90000,1.10000,0.90000
  5400,'OSLO1       ', 300.0000,2,  11,   1,   1,1.00700,  11.3542,1.10000,0.90000,1.10000,0.90000
  5401,'SYLLING     ', 420.0000,1,  11,   1,   1,1.00534,  10.8785,1.10000,0.90000,1.10000,0.90000
  5402,'KAGGEFOSS   ', 420.0000,1,  11,   1,   1,1.00239,  13.2482,1.10000,0.90000,1.10000,0.90000
  5500,'OSLO2       ', 300.0000,2,  11,   1,   1,1.00400,   3.9663,1.10000,0.90000,1.10000,0.90000
  5501,'SKIEN       ', 420.0000,1,  11,   1,   1,1.00884,   4.3206,1.10000,0.90000,1.10000,0.90000
  5600,'KRISTIANSAND', 300.0000,2,  12,   1,   1,1.01000,   5.5584,1.10000,0.90000,1.10000,0.90000
  5601,'STAVANGER   ', 300.0000,1,  12,   1,   1,1.00638,  14.3290,1.10000,0.90000,1.10000,0.90000
  5602,'SANDEFJORD  ', 420.0000,1,  12,   1,   1,1.01149,   6.9068,1.10000,0.90000,1.10000,0.90000
  5603,'ARENDAL     ', 300.0000,1,  12,   1,   1,1.01146,   6.4402,1.10000,0.90000,1.10000,0.90000
  5610,'KRISTIA_HVDC', 300.0000,1,  12,   1,   1,1.01128,   6.3685,1.10000,0.90000,1.10000,0.90000
  5620,'FEDA_HVDC   ', 300.0000,1,  12,   1,   1,1.00760,   5.1480,1.10000,0.90000,1.10000,0.90000
  6000,'KVILLDAL    ', 300.0000,2,  12,   1,   1,1.00500,  16.4261,1.10000,0.90000,1.10000,0.90000
  6001,'HAGAFOSS    ', 420.0000,1,  15,   1,   1,1.00087,  14.5268,1.10000,0.90000,1.10000,0.90000
  6100,'BLAFALLI    ', 300.0000,2,  12,   1,   1,1.00000,  51.1952,1.10000,0.90000,1.10000,0.90000
  6500,'TRONDHEIM   ', 300.0000,2,  13,   1,   1,1.00000,   2.4861,1.10000,0.90000,1.10000,0.90000
  6700,'ROSSAGA     ', 300.0000,2,  14,   1,   1,1.02000,  25.9909,1.10000,0.90000,1.10000,0.90000
  6701,'OFOTEN      ', 420.0000,1,  14,   1,   1,1.00811,  25.9358,1.10000,0.90000,1.10000,0.90000
  7000,'HELSINKI    ', 420.0000,2,  31,   1,   1,1.00000,  24.2980,1.10000,0.90000,1.10000,0.90000
  7010,'VYBORG_HVDC ', 420.0000,1,  31,   1,   1,0.99999,  24.2969,1.10000,0.90000,1.10000,0.90000
  7020,'ESTLINK_HVDC', 420.0000,1,  31,   1,   1,0.99835,  24.0134,1.10000,0.90000,1.10000,0.90000
  7100,'OULU        ', 420.0000,2,  31,   1,   1,1.00000,  24.4209,1.10000,0.90000,1.10000,0.90000
  8500,'MALMO       ', 420.0000,2,  24,   1,   1,1.02000, -11.5080,1.10000,0.90000,1.10000,0.90000
  8600,'ARRIE_HVDC  ', 420.0000,1,  24,   1,   1,1.01993, -11.5201,1.10000,0.90000,1.10000,0.90000
  8700,'KARLSH_HVDC ', 420.0000,1,  24,   1,   1,1.01803, -11.8412,1.10000,0.90000,1.10000,0.90000
0 / END OF BUS DATA, BEGIN LOAD DATA
  3000,'1 ',1,  23,   1,   357.691,   121.024,     0.000,     0.000,     0.000,     0.000,9999,1,0
  3000,'2 ',1,  23,   1,   357.691,   121.024,     0.000,     0.000,     0.000,     0.000,9999,1,0
  3000,'3 ',1,  23,   1,   357.691,   121.024,     0.000,     0.000,     0.000,     0.000,9999,1,0
  3020,'1 ',1,  23,   1,  1219.000,   400.666,     0.000,     0.000,     0.000,     0.000,9999,0,0
  3100,'1 ',1,  22,   1,   104.047,   108.894,     0.000,     0.000,     0.000,     0.000,9999,1,0
  3115,'1 ',1,  21,   1,  1109.000,   364.511,     0.000,     0.000,     0.000,     0.000,9999,1,0
  3249,'1 ',1,  22,   1,  2184.953,   643.464,     0.000,     0.000,     0.000,     0.000,9999,1,0
  3300,'1 ',1,  23,   1,  1565.137,   435.975,     0.000,     0.000,     0.000,     0.000,9999,1,0
  3300,'2 ',1,  23,   1,  1565.137,   435.975,     0.000,     0.000,     0.000,     0.000,9999,1,0
  3359,'1 ',1,  23,   1,  1878.163,   653.960,     0.000,     0.000,     0.000,     0.000,9999,1,0
  3359,'2 ',1,  23,   1,  1878.163,   653.960,     0.000,     0.000,     0.000,     0.000,9999,1,0
  3359,'3 ',1,  23,   1,  1878.163,   653.960,     0.000,     0.000,     0.000,     0.000,9999,1,0
  3359,'4 ',1,  23,   1,  1878.163,   653.960,     0.000,     0.000,     0.000,     0.000,9999,1,0
  3360,'1 ',1,  23,   1,   -54.000,   -17.749,     0.000,     0.000,     0.000,     0.000,9999,0,0
  5100,'1 ',1,  11,   1,   691.263,   192.782,     0.000,     0.000,     0.000,     0.000,9999,1,0
  5300,'2 ',1,  15,   1,  2038.000,   669.858,     0.000,     0.000,     0.000,     0.000,9999,1,0
  5400,'1 ',1,  11,   1,  1445.370,   275.401,     0.000,     0.000,     0.000,     0.000,9999,1,0
  5500,'1 ',1,  11,   1,  1319.684,   550.806,     0.000,     0.000,     0.000,     0.000,9999,1,0
  5500,'2 ',1,  11,   1,  1319.684,   550.806,     0.000,     0.000,     0.000,     0.000,9999,1,0
  5600,'1 ',1,  12,   1,  1502.196,   306.076,     0.000,     0.000,     0.000,     0.000,9999,1,0
  5600,'2 ',1,  12,   1,  1502.196,   306.076,     0.000,     0.000,     0.000,     0.000,9999,1,0
  5610,'1 ',1,  12,   1,  -395.000,   -56.285,     0.000,     0.000,     0.000,     0.000,9999,0,0
  5620,'1 ',1,  12,   1,   729.000,   239.611,     0.000,     0.000,     0.000,     0.000,9999,0,0
  6100,'1 ',1,  12,   1,   767.304,   281.412,     0.000,     0.000,     0.000,     0.000,9999,1,0
  6100,'2 ',1,  12,   1,   767.304,   281.412,     0.000,     0.000,     0.000,     0.000,9999,1,0
  6500,'1 ',1,  13,   1,   944.333,   310.387,     0.000,     0.000,     0.000,     0.000,9999,1,0
  6500,'2 ',1,  13,   1,   944.333,   310.387,     0.000,     0.000,     0.000,     0.000,9999,1,0
  6500,'3 ',1,  13,   1,   944.333,   310.387,     0.000,     0.000,     0.000,     0.000,9999,1,0
  6700,'1 ',1,  14,   1,  2300.000,   755.973,     0.000,     0.000,     0.000,     0.000,9999,1,0
  6701,'1 ',1,  14,   1,     0.000,     0.000,     0.000,     0.000,     0.000,     0.000,9999,0,0
  6701,'3 ',1,  14,   1,   -27.000,    -8.875,     0.000,     0.000,     0.000,     0.000,9999,0,0
  7000,'1 ',1,  31,   1,  1413.149,   294.652,     0.000,     0.000,     0.000,     0.000,9999,1,0
  7000,'2 ',1,  31,   1,  1413.149,   294.652,     0.000,     0.000,     0.000,     0.000,9999,1,0
  7000,'3 ',1,  31,   1,  1413.149,   294.652,     0.000,     0.000,     0.000,     0.000,9999,1,0
  7000,'4 ',1,  31,   1,  1413.149,   294.652,     0.000,     0.000,     0.000,     0.000,9999,1,0
  7000,'5 ',1,  31,   1,  1413.149,   294.652,     0.000,     0.000,     0.000,     0.000,9999,1,0
  7000,'6 ',1,  31,   1, -1219.000,  -400.666,     0.000,     0.000,     0.000,     0.000,9999,0,0
  7010,'1 ',1,  31,   1,     2.000,     0.657,     0.000,     0.000,     0.000,     0.000,9999,0,0
  7020,'1 ',1,  31,   1,   558.000,   183.406,     0.000,     0.000,     0.000,     0.000,9999,0,0
  7100,'1 ',1,  31,   1,  1269.626,   841.876,     0.000,     0.000,     0.000,     0.000,9999,1,0
  7100,'2 ',1,  31,   1,  1269.626,   841.876,     0.000,     0.000,     0.000,     0.000,9999,1,0
  7100,'3 ',1,  31,   1,     0.000,     0.000,     0.000,     0.000,     0.000,     0.000,9999,0,0
  8500,'1 ',1,  24,   1,  1150.333,   378.096,     0.000,     0.000,     0.000,     0.000,9999,1,0
  8500,'2 ',1,  24,   1,  1150.333,   378.096,     0.000,     0.000,     0.000,     0.000,9999,1,0
  8500,'3 ',1,  24,   1,  1150.333,   378.096,     0.000,     0.000,     0.000,     0.000,9999,1,0
  8500,'4 ',1,  24,   1,   178.000,    58.506,     0.000,     0.000,     0.000,     0.000,9999,0,0
  8600,'1 ',1,  24,   1,    -2.000,    -0.657,     0.000,     0.000,     0.000,     0.000,9999,0,0
  8700,'1 ',1,  24,   1,   603.000,   198.197,     0.000,     0.000,     0.000,     0.000,9999,0,0
0 / END OF LOAD DATA, BEGIN FIXED SHUNT DATA
0 / END OF FIXED SHUNT DATA, BEGIN GENERATOR DATA
  3000,'1 ',   337.606,   225.571,   967.000,  -967.000,1.00000,     0,  1300.000, 0.00000E+0, 2.25000E-1, 0.00000E+0, 0.00000E+0,1.00000,1,   33.3,  1167.000,     0.000,9999,1.0000
  3000,'2 ',   337.606,   225.571,   967.000,  -967.000,1.00000,     0,  1300.000, 0.00000E+0, 2.25000E-1, 0.00000E+0, 0.00000E+0,1.00000,1,   33.3,  1167.000,     0.000,9999,1.0000
  3000,'3 ',   337.606,   225.571,   967.000,  -967.000,1.00000,     0,  1300.000, 0.00000E+0, 2.25000E-1, 0.00000E+0, 0.00000E+0,1.00000,1,   33.3,  1167.000,     0.000,9999,1.0000
  3115,'1 ',   642.800,    17.473,   933.000,  -933.000,1.00000,     0,  1100.000, 0.00000E+0, 2.30000E-1, 0.00000E+0, 0.00000E+0,1.00000,1,   33.3,  1000.000,     0.000,9999,1.0000
  3115,'2 ',   642.800,    17.473,   933.000,  -933.000,1.00000,     0,  1100.000, 0.00000E+0, 2.30000E-1, 0.00000E+0, 0.00000E+0,1.00000,1,   33.3,  1000.000,     0.000,9999,1.0000
  3115,'3 ',   642.800,    17.473,   933.000,  -933.000,1.00000,     0,  1100.000, 0.00000E+0, 2.30000E-1, 0.00000E+0, 0.00000E+0,1.00000,1,   33.3,  1000.000,     0.000,9999,1.0000
  3115,'4 ',   642.800,    17.473,   933.000,  -933.000,1.00000,     0,  1100.000, 0.00000E+0, 2.30000E-1, 0.00000E+0, 0.00000E+0,1.00000,1,   33.3,  1000.000,     0.000,9999,1.0000
  3115,'5 ',   642.800,    17.473,   933.000,  -933.000,1.00000,     0,  1100.000, 0.00000E+0, 2.30000E-1, 0.00000E+0, 0.00000E+0,1.00000,1,   33.3,  1000.000,     0.000,9999,1.0000
  3245,'1 ',   277.016,     0.628,   670.000,  -670.000,1.00000,     0,   950.000, 0.00000E+0, 1.53850E-1, 0.00000E+0, 0.00000E+0,1.00000,1,  100.0,   850.000,     0.000,9999,1.0000
  3249,'1 ',   728.123,    49.247,   986.000,  -986.000,1.00000,     0,  1357.000, 0.00000E+0, 2.10000E-1, 0.00000E+0, 0.00000E+0,1.00000,1,   14.3,  1230.000,     0.000,9999,1.0000
  3249,'2 ',   728.123,    49.247,   986.000,  -986.000,1.00000,     0,  1357.000, 0.00000E+0, 2.10000E-1, 0.00000E+0, 0.00000E+0,1.00000,1,   14.3,  1230.000,     0.000,9999,1.0000
  3249,'3 ',   728.123,    49.247,   986.000,  -986.000,1.00000,     0,  1357.000, 0.00000E+0, 2.10000E-1, 0.00000E+0, 0.00000E+0,1.00000,1,   14.3,  1230.000,     0.000,9999,1.0000
  3249,'4 ',   728.123,    49.247,   986.000,  -986.000,1.00000,     0,  1357.000, 0.00000E+0, 2.10000E-1, 0.00000E+0, 0.00000E+0,1.00000,1,   14.3,  1230.000,     0.000,9999,1.0000
  3249,'5 ',   728.123,    49.247,   986.000,  -986.000,1.00000,     0,  1357.000, 0.00000E+0, 2.10000E-1, 0.00000E+0, 0.00000E+0,1.00000,1,   14.3,  1230.000,     0.000,9999,1.0000
  3249,'6 ',   728.123,    49.247,   986.000,  -986.000,1.00000,     0,  1357.000, 0.00000E+0, 2.10000E-1, 0.00000E+0, 0.00000E+0,1.00000,1,   14.3,  1230.000,     0.000,9999,1.0000
  3249,'7 ',   728.123,    49.247,   986.000,  -986.000,1.00000,     0,  1357.000, 0.00000E+0, 2.10000E-1, 0.00000E+0, 0.00000E+0,1.00000,1,   14.3,  1230.000,     0.000,9999,1.0000
  3249,'8 ',   728.123,    49.247,   986.000,  -986.000,1.00000,     0,  1357.000, 0.00000E+0, 2.10000E-1, 0.00000E+0, 0.00000E+0,1.00000,1,   14.3,  1230.000,     0.000,9999,1.0000
  3300,'1 ',   788.727,   100.383,   767.000,  -767.000,1.00000,     0,  1100.000, 0.00000E+0, 1.60000E-1, 0.00000E+0, 0.00000E+0,1.00000,1,   33.3,  1000.000,     0.000,9999,1.0000
  3300,'2 ',   788.727,   100.383,   767.000,  -767.000,1.00000,     0,  1100.000, 0.00000E+0, 1.60000E-1, 0.00000E+0, 0.00000E+0,1.00000,1,   33.3,  1000.000,     0.000,9999,1.0000
  3300,'3 ',   788.727,   100.383,   767.000,  -767.000,1.00000,     0,  1100.000, 0.00000E+0, 1.60000E-1, 0.00000E+0, 0.00000E+0,1.00000,1,   33.3,  1000.000,     0.000,9999,1.0000
  3300,'4 ',   788.727,   100.383,   767.000,  -767.000,1.00000,     0,  1100.000, 0.00000E+0, 1.60000E-1, 0.00000E+0, 0.00000E+0,1.00000,1,   33.3,  1000.000,     0.000,9999,1.0000
  3300,'5 ',   788.727,   100.383,   767.000,  -767.000,1.00000,     0,  1100.000, 0.00000E+0, 1.60000E-1, 0.00000E+0, 0.00000E+0,1.00000,1,   33.3,  1000.000,     0.000,9999,1.0000
  3300,'6 ',   788.727,   100.383,   767.000,  -767.000,1.00000,     0,  1100.000, 0.00000E+0, 1.60000E-1, 0.00000E+0, 0.00000E+0,1.00000,1,   33.3,  1000.000,     0.000,9999,1.0000
  3359,'1 ',   635.637,   465.260,   983.000,  -983.000,1.00000,     0,  1350.000, 0.00000E+0, 1.93750E-1, 0.00000E+0, 0.00000E+0,1.00000,1,   16.7,  1217.000,     0.000,9999,1.0000
  3359,'2 ',   635.637,   465.260,   983.000,  -983.000,1.00000,     0,  1350.000, 0.00000E+0, 1.93750E-1, 0.00000E+0, 0.00000E+0,1.00000,1,   16.7,  1217.000,     0.000,9999,1.0000
  3359,'3 ',   635.637,   465.260,   983.000,  -983.000,1.00000,     0,  1350.000, 0.00000E+0, 1.93750E-1, 0.00000E+0, 0.00000E+0,1.00000,1,   16.7,  1217.000,     0.000,9999,1.0000
  3359,'4 ',   635.637,   465.260,   983.000,  -983.000,1.00000,     0,  1350.000, 0.00000E+0, 1.93750E-1, 0.00000E+0, 0.00000E+0,1.00000,1,   16.7,  1217.000,     0.000,9999,1.0000
  3359,'5 ',   635.637,   465.260,   983.000,  -983.000,1.00000,     0,  1350.000, 0.00000E+0, 1.93750E-1, 0.00000E+0, 0.00000E+0,1.00000,1,   16.7,  1217.000,     0.000,9999,1.0000
  3359,'6 ',   635.637,   465.260,   983.000,  -983.000,1.00000,     0,  1350.000, 0.00000E+0, 1.93750E-1, 0.00000E+0, 0.00000E+0,1.00000,1,   16.7,  1217.000,     0.000,9999,1.0000
  5100,'1 ',   223.503,   451.029,   850.000,  -850.000,1.00000,     0,  1200.000, 0.00000E+0, 1.51350E-1, 0.00000E+0, 0.00000E+0,1.00000,1,  100.0,  1100.000,     0.000,9999,1.0000
  5100,'2 ',   223.503,   451.029,   850.000,  -850.000,1.00000,     0,  1200.000, 0.00000E+0, 1.51350E-1, 0.00000E+0, 0.00000E+0,1.00000,1,  100.0,  1100.000,     0.000,9999,1.0000
  5300,'1 ',   737.000,   260.140,   850.000,  -850.000,1.00000,     0,  1200.000, 0.00000E+0, 2.60000E-1, 0.00000E+0, 0.00000E+0,1.00000,1,   50.0,  1075.000,     0.000,9999,1.0000
  5300,'2 ',   737.000,   260.140,   850.000,  -850.000,1.00000,     0,  1200.000, 0.00000E+0, 2.60000E-1, 0.00000E+0, 0.00000E+0,1.00000,1,   50.0,  1075.000,     0.000,9999,1.0000
  5300,'3 ',   737.000,   260.140,   850.000,  -850.000,1.00000,     0,  1200.000, 0.00000E+0, 2.60000E-1, 0.00000E+0, 0.00000E+0,1.00000,1,   50.0,  1075.000,     0.000,9999,1.0000
  5300,'4 ',   737.000,   260.140,   850.000,  -850.000,1.00000,     0,  1200.000, 0.00000E+0, 2.60000E-1, 0.00000E+0, 0.00000E+0,1.00000,1,   50.0,  1075.000,     0.000,9999,1.0000
  5300,'5 ',   737.000,   260.140,   850.000,  -850.000,1.00000,     0,  1200.000, 0.00000E+0, 2.60000E-1, 0.00000E+0, 0.00000E+0,1.00000,1,   50.0,  1075.000,     0.000,9999,1.0000
  5300,'6 ',   737.000,   260.140,   850.000,  -850.000,1.00000,     0,  1200.000, 0.00000E+0, 2.60000E-1, 0.00000E+0, 0.00000E+0,1.00000,1,   50.0,  1075.000,     0.000,9999,1.0000
  5400,'1 ',   211.740,   315.184,   900.000,  -900.000,1.00700,     0,  1225.000, 0.00000E+0, 1.60000E-1, 0.00000E+0, 0.00000E+0,1.00000,1,   50.0,  1100.000,     0.000,9999,1.0000
  5400,'2 ',   211.740,   315.184,   900.000,  -900.000,1.00700,     0,  1225.000, 0.00000E+0, 1.60000E-1, 0.00000E+0, 0.00000E+0,1.00000,1,   50.0,  1100.000,     0.000,9999,1.0000
  5500,'1 ',   371.258,    47.370,  1200.000, -1200.000,1.00400,     0,  1450.000, 0.00000E+0, 2.28250E-1, 0.00000E+0, 0.00000E+0,1.00000,1,  100.0,  1280.000,     0.000,9999,1.0000
  5500,'2 ',   371.258,    47.370,  1200.000, -1200.000,1.00400,     0,  1450.000, 0.00000E+0, 2.28250E-1, 0.00000E+0, 0.00000E+0,1.00000,1,  100.0,  1280.000,     0.000,9999,1.0000
  5600,'1 ',   544.383,   275.244,   850.000,  -850.000,1.01000,     0,  1650.000, 0.00000E+0, 2.80000E-1, 0.00000E+0, 0.00000E+0,0.99900,1,   50.0,  1050.000,     0.000,9999,1.0000
  5600,'2 ',   544.383,   275.244,   850.000,  -850.000,1.01000,     0,  1650.000, 0.00000E+0, 2.80000E-1, 0.00000E+0, 0.00000E+0,0.99900,1,   50.0,  1050.000,     0.000,9999,1.0000
  5600,'3 ',   544.383,   275.244,   850.000,  -850.000,1.01000,     0,  1650.000, 0.00000E+0, 2.80000E-1, 0.00000E+0, 0.00000E+0,0.99900,1,   50.0,  1050.000,     0.000,9999,1.0000
  5600,'4 ',   544.383,   275.244,   850.000,  -850.000,1.01000,     0,  1650.000, 0.00000E+0, 2.80000E-1, 0.00000E+0, 0.00000E+0,0.99900,1,   50.0,  1050.000,     0.000,9999,1.0000
  6000,'1 ',   493.920,    67.489,   500.000,  -500.000,1.00500,     0,   680.000, 0.00000E+0, 2.80000E-1, 0.00000E+0, 0.00000E+0,1.00000,1,  100.0,   620.000,     0.000,9999,1.0000
  6000,'2 ',   493.920,    67.489,   500.000,  -500.000,1.00500,     0,   680.000, 0.00000E+0, 2.80000E-1, 0.00000E+0, 0.00000E+0,1.00000,1,  100.0,   620.000,     0.000,9999,1.0000
  6000,'3 ',   493.920,    67.489,   500.000,  -500.000,1.00500,     0,   680.000, 0.00000E+0, 2.80000E-1, 0.00000E+0, 0.00000E+0,1.00000,1,  100.0,   620.000,     0.000,9999,1.0000
  6000,'4 ',   493.920,    67.489,   500.000,  -500.000,1.00500,     0,   680.000, 0.00000E+0, 2.80000E-1, 0.00000E+0, 0.00000E+0,1.00000,1,  100.0,   620.000,     0.000,9999,1.0000
  6100,'1 ',   722.558,   170.238,   900.000,  -900.000,1.00000,     0,  1240.000, 0.00000E+0, 1.80000E-1, 0.00000E+0, 0.00000E+0,1.00000,1,   20.0,  1120.000,     0.000,9999,1.0000
  6100,'2 ',   722.558,   170.238,   900.000,  -900.000,1.00000,     0,  1240.000, 0.00000E+0, 1.80000E-1, 0.00000E+0, 0.00000E+0,1.00000,1,   20.0,  1120.000,     0.000,9999,1.0000
  6100,'3 ',   722.558,   170.238,   900.000,  -900.000,1.00000,     0,  1240.000, 0.00000E+0, 1.80000E-1, 0.00000E+0, 0.00000E+0,1.00000,1,   20.0,  1120.000,     0.000,9999,1.0000
  6100,'4 ',   722.558,   170.238,   900.000,  -900.000,1.00000,     0,  1240.000, 0.00000E+0, 1.80000E-1, 0.00000E+0, 0.00000E+0,1.00000,1,   20.0,  1120.000,     0.000,9999,1.0000
  6100,'5 ',   722.558,   170.238,   900.000,  -900.000,1.00000,     0,  1240.000, 0.00000E+0, 1.80000E-1, 0.00000E+0, 0.00000E+0,1.00000,1,   20.0,  1120.000,     0.000,9999,1.0000
  6500,'1 ',   477.250,   219.816,   800.000,  -800.000,1.00000,     0,  1100.000, 0.00000E+0, 1.58020E-1, 0.00000E+0, 0.00000E+0,1.00000,1,   25.0,  1000.000,     0.000,9999,1.0000
  6500,'2 ',   477.250,   219.816,   800.000,  -800.000,1.00000,     0,  1100.000, 0.00000E+0, 1.58020E-1, 0.00000E+0, 0.00000E+0,1.00000,1,   25.0,  1000.000,     0.000,9999,1.0000
  6500,'3 ',   477.250,   219.816,   800.000,  -800.000,1.00000,     0,  1100.000, 0.00000E+0, 1.58020E-1, 0.00000E+0, 0.00000E+0,1.00000,1,   25.0,  1000.000,     0.000,9999,1.0000
  6500,'4 ',   477.250,   219.816,   800.000,  -800.000,1.00000,     0,  1100.000, 0.00000E+0, 1.58020E-1, 0.00000E+0, 0.00000E+0,1.00000,1,   25.0,  1000.000,     0.000,9999,1.0000
  6700,'1 ',   695.000,   172.375,   900.000,  -900.000,1.02000,     0,  1200.000, 0.00000E+0, 1.70620E-1, 0.00000E+0, 0.00000E+0,1.00000,1,   50.0,  1050.000,     0.000,9999,1.0000
  6700,'2 ',   695.000,   172.375,   900.000,  -900.000,1.02000,     0,  1200.000, 0.00000E+0, 1.70620E-1, 0.00000E+0, 0.00000E+0,1.00000,1,   50.0,  1050.000,     0.000,9999,1.0000
  6700,'3 ',   695.000,   172.375,   900.000,  -900.000,1.02000,     0,  1200.000, 0.00000E+0, 1.70620E-1, 0.00000E+0, 0.00000E+0,1.00000,1,   50.0,  1050.000,     0.000,9999,1.0000
  6700,'4 ',   695.000,   172.375,   900.000,  -900.000,1.02000,     0,  1200.000, 0.00000E+0, 1.70620E-1, 0.00000E+0, 0.00000E+0,1.00000,1,   50.0,  1050.000,     0.000,9999,1.0000
  7000,'1 ',   719.805,   119.983,   911.000,  -911.000,1.00000,     0,  1278.000, 0.00000E+0, 2.25000E-1, 0.00000E+0, 0.00000E+0,1.00000,1,   11.1,  1167.000,     0.000,9999,1.0000
  7000,'2 ',   719.805,   119.983,   911.000,  -911.000,1.00000,     0,  1278.000, 0.00000E+0, 2.25000E-1, 0.00000E+0, 0.00000E+0,1.00000,1,   11.1,  1167.000,     0.000,9999,1.0000
  7000,'3 ',   719.805,   119.983,   911.000,  -911.000,1.00000,     0,  1278.000, 0.00000E+0, 2.25000E-1, 0.00000E+0, 0.00000E+0,1.00000,1,   11.1,  1167.000,     0.000,9999,1.0000
  7000,'4 ',   719.805,   119.983,   911.000,  -911.000,1.00000,     0,  1278.000, 0.00000E+0, 2.25000E-1, 0.00000E+0, 0.00000E+0,1.00000,1,   11.1,  1167.000,     0.000,9999,1.0000
  7000,'5 ',   719.805,   119.983,   911.000,  -911.000,1.00000,     0,  1278.000, 0.00000E+0, 2.25000E-1, 0.00000E+0, 0.00000E+0,1.00000,1,   11.1,  1167.000,     0.000,9999,1.0000
  7000,'6 ',   719.805,   119.983,   911.000,  -911.000,1.00000,     0,  1278.000, 0.00000E+0, 2.25000E-1, 0.00000E+0, 0.00000E+0,1.00000,1,   11.1,  1167.000,     0.000,9999,1.0000
  7000,'7 ',   719.805,   119.983,   911.000,  -911.000,1.00000,     0,  1278.000, 0.00000E+0, 2.25000E-1, 0.00000E+0, 0.00000E+0,1.00000,1,   11.1,  1167.000,     0.000,9999,1.0000
  7000,'8 ',   719.805,   119.983,   911.000,  -911.000,1.00000,     0,  1278.000, 0.00000E+0, 2.25000E-1, 0.00000E+0, 0.00000E+0,1.00000,1,   11.1,  1167.000,     0.000,9999,1.0000
  7000,'9 ',   719.805,   119.983,   911.000,  -911.000,1.00000,     0,  1278.000, 0.00000E+0, 2.25000E-1, 0.00000E+0, 0.00000E+0,1.00000,1,   11.1,  1167.000,     0.000,9999,1.0000
  7100,'1 ',   455.919,   601.275,   700.000,  -700.000,1.00000,     0,  1000.000, 0.00000E+0, 1.53850E-1, 0.00000E+0, 0.00000E+0,1.00000,1,   33.3,   900.000,     0.000,9999,1.0000
  7100,'2 ',   455.919,   601.275,   700.000,  -700.000,1.00000,     0,  1000.000, 0.00000E+0, 1.53850E-1, 0.00000E+0, 0.00000E+0,1.00000,1,   33.3,   900.000,     0.000,9999,1.0000
  7100,'3 ',   455.919,   601.275,   700.000,  -700.000,1.00000,     0,  1000.000, 0.00000E+0, 1.53850E-1, 0.00000E+0, 0.00000E+0,1.00000,1,   33.3,   900.000,     0.000,9999,1.0000
  8500,'1 ',   166.667,   338.246,   917.000,  -917.000,1.02000,     0,  1300.000, 0.00000E+0, 1.70620E-1, 0.00000E+0, 0.00000E+0,1.00000,1,   16.7,  1183.000,     0.000,9999,1.0000
  8500,'2 ',   166.667,   338.246,   917.000,  -917.000,1.02000,     0,  1300.000, 0.00000E+0, 1.70620E-1, 0.00000E+0, 0.00000E+0,1.00000,1,   16.7,  1183.000,     0.000,9999,1.0000
  8500,'3 ',   166.667,   338.246,   917.000,  -917.000,1.02000,     0,  1300.000, 0.00000E+0, 1.70620E-1, 0.00000E+0, 0.00000E+0,1.00000,1,   16.7,  1183.000,     0.000,9999,1.0000
  8500,'4 ',   166.667,   338.246,   917.000,  -917.000,1.02000,     0,  1300.000, 0.00000E+0, 1.70620E-1, 0.00000E+0, 0.00000E+0,1.00000,1,   16.7,  1183.000,     0.000,9999,1.0000
  8500,'5 ',   166.667,   338.246,   917.000,  -917.000,1.02000,     0,  1300.000, 0.00000E+0, 1.70620E-1, 0.00000E+0, 0.00000E+0,1.00000,1,   16.7,  1183.000,     0.000,9999,1.0000
  8500,'6 ',   166.667,   338.246,   917.000,  -917.000,1.02000,     0,  1300.000, 0.00000E+0, 1.70620E-1, 0.00000E+0, 0.00000E+0,1.00000,1,   16.7,  1183.000,     0.000,9999,1.0000
0 / END OF GENERATOR DATA, BEGIN BRANCH DATA
  3000,  3020,'1 ', 0.00000E+0, 1.00000E-2,   0.00000, 1500.00, 1800.00, 2100.00,  0.00000,  0.00000,  0.00000,  0.00000,1,1,   0.00,   1,1.0000
  3000,  3115,'1 ', 7.50000E-2, 9.00000E-1,   0.50000, 2000.00, 2500.00, 3000.00,  0.00000,  0.00000,  0.00000,  0.00000,1,2,   0.00,   1,1.0000
  3000,  3245,'1 ', 8.00000E-3, 1.20000E-1,   0.05000, 1200.00, 1600.00, 1800.00,  0.00000,  0.00000,  0.00000,  0.00000,1,2,   0.00,   1,1.0000
  3000,  3245,'2 ', 1.80000E-2, 2.00000E-1,   0.05000,  800.00, 1300.00, 1600.00,  0.00000,  0.00000,  0.00000,  0.00000,1,2,   0.00,   1,1.0000
  3000,  3300,'1 ', 6.00000E-3, 8.00000E-2,   0.03000, 1100.00, 1300.00, 1400.00,  0.00000,  0.00000,  0.00000,  0.00000,1,1,   0.00,   1,1.0000
  3000,  3300,'2 ', 9.00000E-3, 1.00000E-1,   0.02500, 1100.00, 1300.00, 1400.00,  0.00000,  0.00000,  0.00000,  0.00000,1,1,   0.00,   1,1.0000
  3100,  3115,'1 ', 1.50000E-2, 2.00000E-1,   0.20000, 2000.00, 2500.00, 3000.00,  0.00000,  0.00000,  0.00000,  0.00000,1,2,   0.00,   1,1.0000
  3100,  3200,'1 ', 4.00000E-2, 2.40000E-1,   0.20000, 1200.00, 2000.00, 2500.00,  0.00000,  0.00000,  0.00000,  0.00000,1,1,   0.00,   1,1.0000
  3100,  3200,'2 ', 4.00000E-2, 2.40000E-1,   0.20000, 1200.00, 2000.00, 2500.00,  0.00000,  0.00000,  0.00000,  0.00000,1,1,   0.00,   1,1.0000
  3100,  3200,'3 ', 4.00000E-2, 2.40000E-1,   0.20000, 1200.00, 2000.00, 2500.00,  0.00000,  0.00000,  0.00000,  0.00000,1,1,   0.00,   1,1.0000
  3100,  3249,'1 ', 1.50000E-2, 2.15000E-1,   0.20000, 2000.00, 2500.00, 3000.00,  0.00000,  0.00000,  0.00000,  0.00000,1,2,   0.00,   1,1.0000
  3100,  3359,'1 ', 8.00000E-2, 5.00000E-1,   0.25000,  900.00, 1300.00, 1600.00,  0.00000,  0.00000,  0.00000,  0.00000,1,1,   0.00,   1,1.0000
  3100,  3359,'2 ', 4.00000E-2, 2.30000E-1,   0.24000, 1200.00, 2000.00, 2500.00,  0.00000,  0.00000,  0.00000,  0.00000,1,1,   0.00,   1,1.0000
  3115,  3245,'1 ', 4.50000E-2, 5.00000E-1,   0.14000, 1300.00, 1800.00, 2000.00,  0.00000,  0.00000,  0.00000,  0.00000,1,1,   0.00,   1,1.0000
  3115,  3249,'1 ', 1.50000E-2, 2.00000E-1,   0.08000, 1100.00, 1300.00, 1400.00,  0.00000,  0.00000,  0.00000,  0.00000,1,1,   0.00,   1,1.0000
  3115,  6701,'1 ', 4.00000E-2, 4.00000E-1,   0.10000,  850.00, 1000.00, 1100.00,  0.00000,  0.00000,  0.00000,  0.00000,1,2,   0.00,   1,1.0000
  3115,  7100,'1 ', 4.00000E-2, 1.30000E-1,   0.13000, 1300.00, 1500.00, 1700.00,  0.00000,  0.00000,  0.00000,  0.00000,1,1,   0.00,   1,1.0000
  3200,  3300,'1 ', 2.00000E-2, 2.00000E-1,   0.06000,  800.00, 1100.00, 1300.00,  0.00000,  0.00000,  0.00000,  0.00000,1,1,   0.00,   1,1.0000
  3200,  3359,'1 ', 1.00000E-2, 2.00000E-1,   0.07000, 1300.00, 1800.00, 2000.00,  0.00000,  0.00000,  0.00000,  0.00000,1,1,   0.00,   1,1.0000
  3200,  8500,'1 ', 1.00000E-2, 1.70000E-1,   0.06000, 1900.00, 2200.00, 2600.00,  0.00000,  0.00000,  0.00000,  0.00000,1,1,   0.00,   1,1.0000
  3244,  6500,'1 ', 1.00000E-2, 2.00000E-1,   0.06000, 1800.00, 2300.00, 2500.00,  0.00000,  0.00000,  0.00000,  0.00000,1,2,   0.00,   1,1.0000
  3249,  7100,'1 ', 2.00000E-2, 7.50000E-2,   0.07800, 1900.00, 2200.00, 2600.00,  0.00000,  0.00000,  0.00000,  0.00000,1,1,   0.00,   1,1.0000
  3300,  8500,'1 ', 2.00000E-2, 2.30000E-1,   0.06000, 1900.00, 2200.00, 2600.00,  0.00000,  0.00000,  0.00000,  0.00000,1,1,   0.00,   1,1.0000
  3300,  8500,'2 ', 1.20000E-2, 2.70000E-1,   0.10000, 1900.00, 2200.00, 2600.00,  0.00000,  0.00000,  0.00000,  0.00000,1,1,   0.00,   1,1.0000
  3359,  5101,'1 ', 1.60000E-2, 2.60000E-1,   0.09000, 1900.00, 2200.00, 2600.00,  0.00000,  0.00000,  0.00000,  0.00000,1,2,   0.00,   1,1.0000
  3359,  5101,'2 ', 2.00000E-2, 2.20000E-1,   0.06000, 1600.00, 2000.00, 2500.00,  0.00000,  0.00000,  0.00000,  0.00000,1,1,   0.00,   1,1.0000
  3359,  8500,'1 ', 1.20000E-2, 2.70000E-1,   0.10000, 1500.00, 2000.00, 2500.00,  0.00000,  0.00000,  0.00000,  0.00000,1,1,   0.00,   1,1.0000
  3359,  8500,'2 ', 2.50000E-2, 3.20000E-1,   0.09000, 1100.00, 1300.00, 1400.00,  0.00000,  0.00000,  0.00000,  0.00000,1,1,   0.00,   1,1.0000
  3701,  6700,'1 ', 2.50000E-1, 2.00000E+0,   0.03000,  300.00,  400.00,  500.00,  0.00000,  0.00000,  0.00000,  0.00000,1,2,   0.00,   1,1.0000
  5100,  5500,'1 ', 2.70000E-2, 2.60000E-1,   0.04400,  700.00,  800.00,  900.00,  0.00000,  0.00000,  0.00000,  0.00000,1,2,   0.00,   1,1.0000
  5100,  6500,'1 ', 8.00000E-2, 9.00000E-1,   0.06000,  800.00,  900.00,  950.00,  0.00000,  0.00000,  0.00000,  0.00000,1,1,   0.00,   1,1.0000
  5101,  5102,'1 ', 8.00000E-3, 1.00000E-1,   0.09000, 1700.00, 1800.00, 1900.00,  0.00000,  0.00000,  0.00000,  0.00000,1,2,   0.00,   1,1.0000
  5101,  5103,'1 ', 1.00000E-2, 1.40000E-1,   0.04000, 1350.00, 1600.00, 1800.00,  0.00000,  0.00000,  0.00000,  0.00000,1,2,   0.00,   1,1.0000
  5101,  5501,'1 ', 1.00000E-2, 1.50000E-1,   0.55000, 2000.00, 2200.00, 2500.00,  0.02230, -0.97440, -0.02160,  0.97440,1,2,   0.00,   1,1.0000
  5102,  5103,'1 ', 4.00000E-3, 7.00000E-2,   0.03000, 2000.00, 2200.00, 2400.00,  0.00000,  0.00000,  0.00000,  0.00000,1,1,   0.00,   1,1.0000
  5102,  5304,'1 ', 1.70000E-2, 2.40000E-1,   0.07000, 1500.00, 1800.00, 2000.00,  0.00000,  0.00000,  0.00000,  0.00000,1,2,   0.00,   1,1.0000
  5102,  6001,'1 ', 3.00000E-2, 4.60000E-1,   0.13000, 1450.00, 1700.00, 2000.00,  0.00020,  0.00010,  0.00020, -0.00010,1,2,   0.00,   1,1.0000
  5103,  5304,'1 ', 2.00000E-2, 2.50000E-1,   0.07000, 1500.00, 1750.00, 2000.00,  0.00000,  0.00000,  0.00000,  0.00000,1,2,   0.00,   1,1.0000
  5103,  5304,'2 ', 1.30000E-2, 2.00000E-1,   0.06000, 1500.00, 1800.00, 2000.00,  0.00000,  0.00000,  0.00000,  0.00000,1,2,   0.00,   1,1.0000
  5300,  6100,'1 ', 2.10000E-2, 2.20000E-1,   0.01000, 1900.00, 2200.00, 2600.00,  0.00000,  0.00000,  0.00000,  0.00000,1,2,   0.00,   1,1.0000
  5301,  5304,'1 ', 1.00000E-2, 2.00000E-1,   0.06000, 1250.00, 1500.00, 1700.00,  0.00000,  0.00000,  0.00000,  0.00000,1,1,   0.00,   1,1.0000
  5301,  5305,'1 ', 7.00000E-3, 1.20000E-1,   0.03100, 2000.00, 2200.00, 2500.00,  0.00000,  0.00000,  0.00000,  0.00000,1,1,   0.00,   1,1.0000
  5301,  6001,'1 ', 1.30000E-2, 2.00000E-1,   0.05000, 1800.00, 2000.00, 2150.00,  0.00000,  0.00000,  0.00000,  0.00000,1,2,   0.00,   1,1.0000
  5304,  5305,'1 ', 1.00000E-2, 1.50000E-1,   0.05000, 1950.00, 2200.00, 2400.00,  0.00000,  0.00000,  0.00000,  0.00000,1,2,   0.00,   1,1.0000
  5304,  5305,'2 ', 1.30000E-2, 1.70000E-2,   0.04000, 1350.00, 1400.00, 1500.00,  0.00000,  0.00000,  0.00000,  0.00000,1,2,   0.00,   1,1.0000
  5400,  5500,'1 ', 9.00000E-3, 9.40000E-2,   0.05000, 1900.00, 2200.00, 2600.00,  0.00000,  0.00000,  0.00000,  0.00000,1,1,   0.00,   1,1.0000
  5400,  6000,'1 ', 3.30000E-2, 3.60000E-1,   0.02500,  800.00,  900.00,  950.00,  0.00000,  0.00000,  0.00000,  0.00000,1,2,   0.00,   1,1.0000
  5401,  5501,'1 ', 1.75000E-2, 2.70000E-1,   0.08000, 1500.00, 1800.00, 2000.00,  0.00000,  0.00000,  0.00000,  0.00000,1,1,   0.00,   1,1.0000
  5401,  5602,'1 ', 1.60000E-2, 2.55000E-1,   0.09000, 2200.00, 2400.00, 2600.00,  0.00000,  0.00000,  0.00000,  0.00000,1,1,   0.00,   1,1.0000
  5401,  6001,'1 ', 6.40000E-3, 1.00000E-1,   0.02800, 1250.00, 1500.00, 1700.00, -0.00020, -0.00050,  0.00020,  0.00050,1,2,   0.00,   1,1.0000
  5402,  6001,'1 ', 7.00000E-4, 1.00000E-2,   0.00300, 2100.00, 2500.00, 3000.00,  0.00000,  0.00000,  0.00000,  0.00000,1,2,   0.00,   1,1.0000
  5500,  5603,'1 ', 5.00000E-2, 6.00000E-1,   0.05000,  800.00,  900.00,  950.00,  0.00030,  0.00130, -0.00030, -0.00130,1,1,   0.00,   1,1.0000
  5600,  5601,'1 ', 3.00000E-2, 3.40000E-1,   0.02000, 1200.00, 1500.00, 1800.00,  0.00000,  0.00000,  0.00000,  0.00000,1,2,   0.00,   1,1.0000
  5600,  5603,'1 ', 2.00000E-2, 2.20000E-1,   0.02000, 2500.00, 3000.00, 3500.00,  0.00000,  0.00000,  0.00000,  0.00000,1,1,   0.00,   1,1.0000
  5600,  5620,'1 ', 0.00000E+0, 1.00000E-2,   0.00000, 1000.00, 1200.00, 1500.00,  0.00000,  0.00000,  0.00000,  0.00000,1,1,   0.00,   1,1.0000
  5600,  6000,'1 ', 2.00000E-2, 2.00000E-1,   0.07000, 2100.00, 2500.00, 2900.00,  0.00000,  0.00000,  0.00000,  0.00000,1,1,   0.00,   1,1.0000
  5603,  5610,'1 ', 0.00000E+0, 1.00000E-2,   0.00000, 2500.00, 3000.00, 3500.00,  0.00000,  0.00000,  0.00000,  0.00000,1,1,   0.00,   1,1.0000
  6000,  6100,'1 ', 3.40000E-2, 4.20000E-1,   0.03000, 1950.00, 2200.00, 2400.00,  0.00000,  0.00000,  0.00000,  0.00000,1,1,   0.00,   1,1.0000
  6500,  6700,'1 ', 1.70000E-1, 1.80000E+0,   0.10000,  800.00,  900.00,  950.00,  0.00000,  0.00000,  0.00000,  0.00000,1,1,   0.00,   1,1.0000
  6500,  6700,'2 ', 1.00000E-1, 1.30000E+0,   0.12000, 1000.00, 1200.00, 1300.00,  0.00000,  0.00000,  0.00000,  0.00000,1,1,   0.00,   1,1.0000
  7000,  7010,'1 ', 0.00000E+0, 1.00000E-2,   0.00000, 2500.00, 3000.00, 3500.00,  0.00000,  0.00000,  0.00000,  0.00000,1,1,   0.00,   1,1.0000
  7000,  7020,'1 ', 0.00000E+0, 1.00000E-2,   0.00000, 1000.00, 1200.00, 1500.00,  0.00000,  0.00000,  0.00000,  0.00000,1,1,   0.00,   1,1.0000
  7000,  7100,'1 ', 4.00000E-2, 1.20000E-1,   0.13000, 1040.00, 1200.00, 1500.00,  0.00000,  0.00000,  0.00000,  0.00000,1,2,   0.00,   1,1.0000
  7000,  7100,'2 ', 4.00000E-2, 1.20000E-1,   0.13000, 1040.00, 1200.00, 1500.00,  0.00000,  0.00000,  0.00000,  0.00000,1,2,   0.00,   1,1.0000
  7000,  7100,'3 ', 4.00000E-2, 1.40000E-1,   0.13000, 1200.00, 1500.00, 1700.00,  0.00000,  0.00000,  0.00000,  0.00000,1,2,   0.00,   1,1.0000
  8500,  8600,'1 ', 0.00000E+0, 1.00000E-2,   0.00000, 1000.00, 1200.00, 1500.00,  0.00000,  0.00000,  0.00000,  0.00000,1,1,   0.00,   1,1.0000
  8500,  8700,'1 ', 0.00000E+0, 1.00000E-2,   0.00000, 1000.00, 1200.00, 1500.00,  0.00000,  0.00000,  0.00000,  0.00000,1,1,   0.00,   1,1.0000
0 / END OF BRANCH DATA, BEGIN TRANSFORMER DATA
  3244,  3245,     0,'1 ',1,1,1, 0.00000E+0, 0.00000E+0,2,'1           ',1,   1,1.0000,   0,1.0000,   0,1.0000,   0,1.0000,'            '
 5.00000E-3, 2.00000E-2,  1000.00
1.00000,   0.000,   0.000,  2000.00,  3000.00,  4000.00, 1,   3245, 1.40000, 0.60000, 1.01000, 0.99000, 127, 0, 0.00000, 0.00000,  0.000
1.00000,   0.000
  3701,  3249,     0,'1 ',1,1,1, 0.00000E+0, 0.00000E+0,2,'1           ',1,   1,1.0000,   0,1.0000,   0,1.0000,   0,1.0000,'            '
 2.00000E-2, 5.00000E-1,  1000.00
0.99365,   0.000,   0.000,  2000.00,  3000.00,  4000.00, 1,   3701, 1.40000, 0.60000, 1.01000, 0.99000, 127, 0, 0.00000, 0.00000,  0.000
1.00000,   0.000
  3359,  3360,     0,'1 ',1,1,1, 0.00000E+0, 0.00000E+0,2,'1           ',1,   1,1.0000,   0,1.0000,   0,1.0000,   0,1.0000,'            '
 5.00000E-3, 2.00000E-2,  1000.00
0.99980,   0.000,   0.000,  2000.00,  3000.00,  4000.00, 1,   3360, 1.40000, 0.60000, 1.01000, 0.99000, 127, 0, 0.00000, 0.00000,  0.000
1.00000,   0.000
  5101,  5100,     0,'1 ',1,1,1, 0.00000E+0, 0.00000E+0,2,'1           ',1,   1,1.0000,   0,1.0000,   0,1.0000,   0,1.0000,'            '
 8.00000E-4, 3.05000E-2,  1000.00
1.01910,   0.000,   0.000,  2000.00,  3000.00,  4000.00, 1,   5101, 1.40000, 0.60000, 1.01000, 0.99000, 127, 0, 0.00000, 0.00000,  0.000
1.00000,   0.000
  5300,  5301,     0,'1 ',1,1,1, 0.00000E+0, 0.00000E+0,2,'1           ',1,   1,1.0000,   0,1.0000,   0,1.0000,   0,1.0000,'            '
 1.60000E-3, 6.10000E-2,  1000.00
0.96825,   0.000,   0.000,  4000.00,  4500.00,  5000.00, 1,   5301, 1.40000, 0.60000, 1.01000, 0.99000, 127, 0, 0.00000, 0.00000,  0.000
1.00000,   0.000
  5400,  5401,     0,'1 ',1,1,1, 0.00000E+0, 0.00000E+0,2,'1           ',1,   1,1.0000,   0,1.0000,   0,1.0000,   0,1.0000,'            '
 3.20000E-3, 1.20000E-1,  1000.00
1.00640,   0.000,   0.000,  2000.00,  3000.00,  4000.00, 1,   5401, 1.40000, 0.60000, 1.01000, 0.99000, 127, 0, 0.00000, 0.00000,  0.000
1.00000,   0.000
  5400,  5402,     0,'1 ',1,1,1, 0.00000E+0, 0.00000E+0,2,'1           ',1,   1,1.0000,   0,1.0000,   0,1.0000,   0,1.0000,'            '
 4.00000E-4, 1.50000E-2,  1000.00
1.00000,   0.000,   0.000,  2200.00,  3000.00,  4000.00, 1,   5402, 1.40000, 0.60000, 1.01000, 0.99000, 127, 0, 0.00000, 0.00000,  0.000
1.00000,   0.000
  5500,  5501,     0,'1 ',1,1,1, 0.00000E+0, 0.00000E+0,2,'1           ',1,   1,1.0000,   0,1.0000,   0,1.0000,   0,1.0000,'            '
 4.00000E-4, 1.50000E-2,  1000.00
1.01260,   0.000,   0.000,  2000.00,  3000.00,  4000.00, 1,   5501, 1.40000, 0.60000, 1.01000, 0.99000, 127, 0, 0.00000, 0.00000,  0.000
1.00000,   0.000
  5601,  6001,     0,'1 ',1,1,1, 0.00000E+0, 0.00000E+0,2,'1           ',1,   1,1.0000,   0,1.0000,   0,1.0000,   0,1.0000,'            '
 2.00000E-4, 7.60000E-3,  1000.00
1.00540,   0.000,   0.000,  2000.00,  3000.00,  4000.00, 1,   5601, 1.40000, 0.60000, 1.01000, 0.99000, 127, 0, 0.00000, 0.00000,  0.000
1.00000,   0.000
  5603,  5602,     0,'1 ',1,1,1, 0.00000E+0, 0.00000E+0,2,'1           ',1,   1,1.0000,   0,1.0000,   0,1.0000,   0,1.0000,'            '
 8.00000E-4, 3.05000E-2,  1000.00
1.00000,   0.000,   0.000,  2000.00,  3000.00,  4000.00,-1,   5602, 1.40000, 0.60000, 1.01000, 0.99000, 127, 0, 0.00000, 0.00000,  0.000
1.00000,   0.000
  6000,  6001,     0,'1 ',1,1,1, 0.00000E+0, 0.00000E+0,2,'1           ',1,   1,1.0000,   0,1.0000,   0,1.0000,   0,1.0000,'            '
 4.00000E-4, 1.50000E-2,  1000.00
1.00630,   0.000,   0.000,  2200.00,  3000.00,  4000.00, 1,   6001, 1.40000, 0.60000, 1.01000, 0.99000, 127, 0, 0.00000, 0.00000,  0.000
1.00000,   0.000
  6700,  6701,     0,'1 ',1,1,1, 0.00000E+0, 0.00000E+0,2,'1           ',1,   1,1.0000,   0,1.0000,   0,1.0000,   0,1.0000,'            '
 5.00000E-3, 2.00000E-2,  1000.00
1.01250,   0.000,   0.000,  2000.00,  3000.00,  4000.00, 1,   6701, 1.40000, 0.60000, 1.01000, 0.99000, 127, 0, 0.00000, 0.00000,  0.000
1.00000,   0.000
0 / END OF TRANSFORMER DATA, BEGIN AREA DATA
  11,  5500, -3163.000,    10.000,'NO1         '
  12,  5600,  2893.000,    10.000,'NO2         '
  13,  6500,  -925.000,    10.000,'NO3         '
  14,  6700,   480.000,    10.000,'NO4         '
  15,  5300,  2384.000,    10.000,'NO5         '
  21,  3115,  2141.000,    10.000,'SE1         '
  22,  3249,  3884.000,    10.000,'SE2         '
  23,  3300, -3340.000,    10.000,'SE3         '
  24,  8500, -3218.000,    10.000,'SE4         '
  31,  7000, -1136.000,    10.000,'FI1         '
0 / END OF AREA DATA, BEGIN TWO-TERMINAL DC DATA
0 / END OF TWO-TERMINAL DC DATA, BEGIN VSC DC LINE DATA
0 / END OF VSC DC LINE DATA, BEGIN IMPEDANCE CORRECTION DATA
0 / END OF IMPEDANCE CORRECTION DATA, BEGIN MULTI-TERMINAL DC DATA
0 / END OF MULTI-TERMINAL DC DATA, BEGIN MULTI-SECTION LINE DATA
0 / END OF MULTI-SECTION LINE DATA, BEGIN ZONE DATA
   1,'ZONE 1      '
0 / END OF ZONE DATA, BEGIN INTER-AREA TRANSFER DATA
0 / END OF INTER-AREA TRANSFER DATA, BEGIN OWNER DATA
9999,'DEF_OWNER   '
0 / END OF OWNER DATA, BEGIN FACTS DEVICE DATA
0 / END OF FACTS DEVICE DATA, BEGIN SWITCHED SHUNT DATA
0 / END OF SWITCHED SHUNT DATA, BEGIN GNE DATA
0 / END OF GNE DATA, BEGIN INDUCTION MACHINE DATA
0 / END OF INDUCTION MACHINE DATA
Q
